data/feeders/R5-35.00-1.glm
clock {
     timezone EST+5EDT;
     timestamp '2000-01-01 0:00:00';
     stoptime '2000-01-01 0:01:00';
}
#set profiler=1
module tape;
module powerflow{
  solver_method NR;
  default_maximum_voltage_error 1e-6;
};
object transformer_configuration {
  name XF1_PADMOUNT_AS_75;
  power_rating 75.00;
  powerA_rating 75.00;
  powerB_rating 0.0;
  powerC_rating 0.0;
  install_type PADMOUNT;
  connect_type SINGLE_PHASE_CENTER_TAPPED;
  primary_voltage 19920.0;
  secondary_voltage 120.0;
  resistance 0.00625;
  resistance1 0.01250;
  resistance2 0.01250;
  reactance 0.01352;
  reactance1 0.00676;
  reactance2 0.00676;
  shunt_resistance 238.10;
  shunt_reactance 67.11;
}
object transformer_configuration {
  name XF1_PADMOUNT_AS_167;
  power_rating 167.00;
  powerA_rating 167.00;
  powerB_rating 0.0;
  powerC_rating 0.0;
  install_type PADMOUNT;
  connect_type SINGLE_PHASE_CENTER_TAPPED;
  primary_voltage 19920.0;
  secondary_voltage 120.0;
  resistance 0.00575;
  resistance1 0.01150;
  resistance2 0.01150;
  reactance 0.02216;
  reactance1 0.01108;
  reactance2 0.01108;
  shunt_resistance 263.16;
  shunt_reactance 60.24;
}
object transformer_configuration {
  name XF1_PADMOUNT_BS_75;
  power_rating 75.00;
  powerA_rating 0.0;
  powerB_rating 75.00;
  powerC_rating 0.0;
  install_type PADMOUNT;
  connect_type SINGLE_PHASE_CENTER_TAPPED;
  primary_voltage 19920.0;
  secondary_voltage 120.0;
  resistance 0.00625;
  resistance1 0.01250;
  resistance2 0.01250;
  reactance 0.01352;
  reactance1 0.00676;
  reactance2 0.00676;
  shunt_resistance 238.10;
  shunt_reactance 67.11;
}
object transformer_configuration {
  name XF1_POLETOP_AS_100;
  power_rating 100.00;
  powerA_rating 100.00;
  powerB_rating 0.0;
  powerC_rating 0.0;
  install_type POLETOP;
  connect_type SINGLE_PHASE_CENTER_TAPPED;
  primary_voltage 19920.0;
  secondary_voltage 120.0;
  resistance 0.00600;
  resistance1 0.01200;
  resistance2 0.01200;
  reactance 0.01752;
  reactance1 0.00876;
  reactance2 0.00876;
  shunt_resistance 250.00;
  shunt_reactance 68.97;
}
object transformer_configuration {
  name XF1_POLETOP_AS_75;
  power_rating 75.00;
  powerA_rating 75.00;
  powerB_rating 0.0;
  powerC_rating 0.0;
  install_type POLETOP;
  connect_type SINGLE_PHASE_CENTER_TAPPED;
  primary_voltage 19920.0;
  secondary_voltage 120.0;
  resistance 0.00625;
  resistance1 0.01250;
  resistance2 0.01250;
  reactance 0.01352;
  reactance1 0.00676;
  reactance2 0.00676;
  shunt_resistance 238.10;
  shunt_reactance 67.11;
}
object transformer_configuration {
  name XF1_PADMOUNT_BS_50;
  power_rating 50.00;
  powerA_rating 0.0;
  powerB_rating 50.00;
  powerC_rating 0.0;
  install_type PADMOUNT;
  connect_type SINGLE_PHASE_CENTER_TAPPED;
  primary_voltage 19920.0;
  secondary_voltage 120.0;
  resistance 0.00650;
  resistance1 0.01300;
  resistance2 0.01300;
  reactance 0.01416;
  reactance1 0.00708;
  reactance2 0.00708;
  shunt_resistance 222.22;
  shunt_reactance 64.94;
}
object transformer_configuration {
  name XF1_PADMOUNT_AS_250;
  power_rating 250.00;
  powerA_rating 250.00;
  powerB_rating 0.0;
  powerC_rating 0.0;
  install_type PADMOUNT;
  connect_type SINGLE_PHASE_CENTER_TAPPED;
  primary_voltage 19920.0;
  secondary_voltage 120.0;
  resistance 0.00550;
  resistance1 0.01100;
  resistance2 0.01100;
  reactance 0.03080;
  reactance1 0.01540;
  reactance2 0.01540;
  shunt_resistance 277.78;
  shunt_reactance 55.25;
}
object transformer_configuration {
  name XF1_PADMOUNT_AS_100;
  power_rating 100.00;
  powerA_rating 100.00;
  powerB_rating 0.0;
  powerC_rating 0.0;
  install_type PADMOUNT;
  connect_type SINGLE_PHASE_CENTER_TAPPED;
  primary_voltage 19920.0;
  secondary_voltage 120.0;
  resistance 0.00600;
  resistance1 0.01200;
  resistance2 0.01200;
  reactance 0.01752;
  reactance1 0.00876;
  reactance2 0.00876;
  shunt_resistance 250.00;
  shunt_reactance 68.97;
}
object transformer_configuration {
  name XF1_PADMOUNT_BS_100;
  power_rating 100.00;
  powerA_rating 0.0;
  powerB_rating 100.00;
  powerC_rating 0.0;
  install_type PADMOUNT;
  connect_type SINGLE_PHASE_CENTER_TAPPED;
  primary_voltage 19920.0;
  secondary_voltage 120.0;
  resistance 0.00600;
  resistance1 0.01200;
  resistance2 0.01200;
  reactance 0.01752;
  reactance1 0.00876;
  reactance2 0.00876;
  shunt_resistance 250.00;
  shunt_reactance 68.97;
}
object transformer_configuration {
  name XF1_PADMOUNT_CS_100;
  power_rating 100.00;
  powerA_rating 0.0;
  powerB_rating 0.0;
  powerC_rating 100.00;
  install_type PADMOUNT;
  connect_type SINGLE_PHASE_CENTER_TAPPED;
  primary_voltage 19920.0;
  secondary_voltage 120.0;
  resistance 0.00600;
  resistance1 0.01200;
  resistance2 0.01200;
  reactance 0.01752;
  reactance1 0.00876;
  reactance2 0.00876;
  shunt_resistance 250.00;
  shunt_reactance 68.97;
}
object transformer_configuration {
  name XF1_PADMOUNT_AS_5;
  power_rating 5.00;
  powerA_rating 5.00;
  powerB_rating 0.0;
  powerC_rating 0.0;
  install_type PADMOUNT;
  connect_type SINGLE_PHASE_CENTER_TAPPED;
  primary_voltage 19920.0;
  secondary_voltage 120.0;
  resistance 0.01050;
  resistance1 0.02100;
  resistance2 0.02100;
  reactance 0.01224;
  reactance1 0.00612;
  reactance2 0.00612;
  shunt_resistance 111.11;
  shunt_reactance 29.59;
}
object transformer_configuration {
  name XF1_PADMOUNT_BS_5;
  power_rating 5.00;
  powerA_rating 0.0;
  powerB_rating 5.00;
  powerC_rating 0.0;
  install_type PADMOUNT;
  connect_type SINGLE_PHASE_CENTER_TAPPED;
  primary_voltage 19920.0;
  secondary_voltage 120.0;
  resistance 0.01050;
  resistance1 0.02100;
  resistance2 0.02100;
  reactance 0.01224;
  reactance1 0.00612;
  reactance2 0.00612;
  shunt_resistance 111.11;
  shunt_reactance 29.59;
}
object transformer_configuration {
  name XF1_PADMOUNT_CS_5;
  power_rating 5.00;
  powerA_rating 0.0;
  powerB_rating 0.0;
  powerC_rating 5.00;
  install_type PADMOUNT;
  connect_type SINGLE_PHASE_CENTER_TAPPED;
  primary_voltage 19920.0;
  secondary_voltage 120.0;
  resistance 0.01050;
  resistance1 0.02100;
  resistance2 0.02100;
  reactance 0.01224;
  reactance1 0.00612;
  reactance2 0.00612;
  shunt_resistance 111.11;
  shunt_reactance 29.59;
}
object transformer_configuration {
  name XF1_PADMOUNT_CS_75;
  power_rating 75.00;
  powerA_rating 0.0;
  powerB_rating 0.0;
  powerC_rating 75.00;
  install_type PADMOUNT;
  connect_type SINGLE_PHASE_CENTER_TAPPED;
  primary_voltage 19920.0;
  secondary_voltage 120.0;
  resistance 0.00625;
  resistance1 0.01250;
  resistance2 0.01250;
  reactance 0.01352;
  reactance1 0.00676;
  reactance2 0.00676;
  shunt_resistance 238.10;
  shunt_reactance 67.11;
}
object transformer_configuration {
  name XF1_PADMOUNT_CS_37p5;
  power_rating 37.50;
  powerA_rating 0.0;
  powerB_rating 0.0;
  powerC_rating 37.50;
  install_type PADMOUNT;
  connect_type SINGLE_PHASE_CENTER_TAPPED;
  primary_voltage 19920.0;
  secondary_voltage 120.0;
  resistance 0.00725;
  resistance1 0.01450;
  resistance2 0.01450;
  reactance 0.01320;
  reactance1 0.00660;
  reactance2 0.00660;
  shunt_resistance 212.77;
  shunt_reactance 57.47;
}
object transformer_configuration {
  name XF1_PADMOUNT_CS_25;
  power_rating 25.00;
  powerA_rating 0.0;
  powerB_rating 0.0;
  powerC_rating 25.00;
  install_type PADMOUNT;
  connect_type SINGLE_PHASE_CENTER_TAPPED;
  primary_voltage 19920.0;
  secondary_voltage 120.0;
  resistance 0.00800;
  resistance1 0.01600;
  resistance2 0.01600;
  reactance 0.01208;
  reactance1 0.00604;
  reactance2 0.00604;
  shunt_resistance 192.31;
  shunt_reactance 51.81;
}
object transformer_configuration {
  name XF1_PADMOUNT_AS_50;
  power_rating 50.00;
  powerA_rating 50.00;
  powerB_rating 0.0;
  powerC_rating 0.0;
  install_type PADMOUNT;
  connect_type SINGLE_PHASE_CENTER_TAPPED;
  primary_voltage 19920.0;
  secondary_voltage 120.0;
  resistance 0.00650;
  resistance1 0.01300;
  resistance2 0.01300;
  reactance 0.01416;
  reactance1 0.00708;
  reactance2 0.00708;
  shunt_resistance 222.22;
  shunt_reactance 64.94;
}
object transformer_configuration {
  name XF1_PADMOUNT_CS_50;
  power_rating 50.00;
  powerA_rating 0.0;
  powerB_rating 0.0;
  powerC_rating 50.00;
  install_type PADMOUNT;
  connect_type SINGLE_PHASE_CENTER_TAPPED;
  primary_voltage 19920.0;
  secondary_voltage 120.0;
  resistance 0.00650;
  resistance1 0.01300;
  resistance2 0.01300;
  reactance 0.01416;
  reactance1 0.00708;
  reactance2 0.00708;
  shunt_resistance 222.22;
  shunt_reactance 64.94;
}
object transformer_configuration {
  name XF1_PADMOUNT_CS_167;
  power_rating 167.00;
  powerA_rating 0.0;
  powerB_rating 0.0;
  powerC_rating 167.00;
  install_type PADMOUNT;
  connect_type SINGLE_PHASE_CENTER_TAPPED;
  primary_voltage 19920.0;
  secondary_voltage 120.0;
  resistance 0.00575;
  resistance1 0.01150;
  resistance2 0.01150;
  reactance 0.02216;
  reactance1 0.01108;
  reactance2 0.01108;
  shunt_resistance 263.16;
  shunt_reactance 60.24;
}
object transformer_configuration {
  name XF1_PADMOUNT_BS_167;
  power_rating 167.00;
  powerA_rating 0.0;
  powerB_rating 167.00;
  powerC_rating 0.0;
  install_type PADMOUNT;
  connect_type SINGLE_PHASE_CENTER_TAPPED;
  primary_voltage 19920.0;
  secondary_voltage 120.0;
  resistance 0.00575;
  resistance1 0.01150;
  resistance2 0.01150;
  reactance 0.02216;
  reactance1 0.01108;
  reactance2 0.01108;
  shunt_resistance 263.16;
  shunt_reactance 60.24;
}
object transformer_configuration {
  name XF1_PADMOUNT_AS_37p5;
  power_rating 37.50;
  powerA_rating 37.50;
  powerB_rating 0.0;
  powerC_rating 0.0;
  install_type PADMOUNT;
  connect_type SINGLE_PHASE_CENTER_TAPPED;
  primary_voltage 19920.0;
  secondary_voltage 120.0;
  resistance 0.00725;
  resistance1 0.01450;
  resistance2 0.01450;
  reactance 0.01320;
  reactance1 0.00660;
  reactance2 0.00660;
  shunt_resistance 212.77;
  shunt_reactance 57.47;
}
object transformer_configuration {
  name XF1_PADMOUNT_BS_250;
  power_rating 250.00;
  powerA_rating 0.0;
  powerB_rating 250.00;
  powerC_rating 0.0;
  install_type PADMOUNT;
  connect_type SINGLE_PHASE_CENTER_TAPPED;
  primary_voltage 19920.0;
  secondary_voltage 120.0;
  resistance 0.00550;
  resistance1 0.01100;
  resistance2 0.01100;
  reactance 0.03080;
  reactance1 0.01540;
  reactance2 0.01540;
  shunt_resistance 277.78;
  shunt_reactance 55.25;
}
object transformer_configuration {
  name XF1_PADMOUNT_CS_15;
  power_rating 15.00;
  powerA_rating 0.0;
  powerB_rating 0.0;
  powerC_rating 15.00;
  install_type PADMOUNT;
  connect_type SINGLE_PHASE_CENTER_TAPPED;
  primary_voltage 19920.0;
  secondary_voltage 120.0;
  resistance 0.00850;
  resistance1 0.01700;
  resistance2 0.01700;
  reactance 0.01176;
  reactance1 0.00588;
  reactance2 0.00588;
  shunt_resistance 166.67;
  shunt_reactance 39.53;
}
object transformer_configuration {
  name XF1_PADMOUNT_AS_25;
  power_rating 25.00;
  powerA_rating 25.00;
  powerB_rating 0.0;
  powerC_rating 0.0;
  install_type PADMOUNT;
  connect_type SINGLE_PHASE_CENTER_TAPPED;
  primary_voltage 19920.0;
  secondary_voltage 120.0;
  resistance 0.00800;
  resistance1 0.01600;
  resistance2 0.01600;
  reactance 0.01208;
  reactance1 0.00604;
  reactance2 0.00604;
  shunt_resistance 192.31;
  shunt_reactance 51.81;
}
object transformer_configuration {
  name XF1_PADMOUNT_BS_37p5;
  power_rating 37.50;
  powerA_rating 0.0;
  powerB_rating 37.50;
  powerC_rating 0.0;
  install_type PADMOUNT;
  connect_type SINGLE_PHASE_CENTER_TAPPED;
  primary_voltage 19920.0;
  secondary_voltage 120.0;
  resistance 0.00725;
  resistance1 0.01450;
  resistance2 0.01450;
  reactance 0.01320;
  reactance1 0.00660;
  reactance2 0.00660;
  shunt_resistance 212.77;
  shunt_reactance 57.47;
}
object transformer_configuration {
  name XF1_PADMOUNT_CS_10;
  power_rating 10.00;
  powerA_rating 0.0;
  powerB_rating 0.0;
  powerC_rating 10.00;
  install_type PADMOUNT;
  connect_type SINGLE_PHASE_CENTER_TAPPED;
  primary_voltage 19920.0;
  secondary_voltage 120.0;
  resistance 0.00950;
  resistance1 0.01900;
  resistance2 0.01900;
  reactance 0.01040;
  reactance1 0.00520;
  reactance2 0.00520;
  shunt_resistance 147.06;
  shunt_reactance 34.25;
}
object transformer_configuration {
  name XF1_PADMOUNT_CS_333;
  power_rating 333.00;
  powerA_rating 0.0;
  powerB_rating 0.0;
  powerC_rating 333.00;
  install_type PADMOUNT;
  connect_type SINGLE_PHASE_CENTER_TAPPED;
  primary_voltage 19920.0;
  secondary_voltage 120.0;
  resistance 0.00500;
  resistance1 0.01000;
  resistance2 0.01000;
  reactance 0.03920;
  reactance1 0.01960;
  reactance2 0.01960;
  shunt_resistance 294.12;
  shunt_reactance 50.76;
}
object transformer_configuration {
  name XF3_PADMOUNT_ABCN_500;
  power_rating 500.00;
  powerA_rating 166.67;
  powerB_rating 166.67;
  powerC_rating 166.67;
  install_type PADMOUNT;
  connect_type WYE_WYE;
  primary_voltage 34500.0;
  secondary_voltage 480.0;
  resistance 0.01100;
  reactance 0.04880;
  shunt_resistance 222.22;
  shunt_reactance 44.25;
}
object transformer_configuration {
  name XF3_PADMOUNT_ABCN_30;
  power_rating 30.00;
  powerA_rating 10.00;
  powerB_rating 10.00;
  powerC_rating 10.00;
  install_type PADMOUNT;
  connect_type WYE_WYE;
  primary_voltage 34500.0;
  secondary_voltage 208.0;
  resistance 0.01900;
  reactance 0.01770;
  shunt_resistance 126.58;
  shunt_reactance 22.57;
}
object transformer_configuration {
  name XF3_PADMOUNT_ABCN_75;
  power_rating 75.00;
  powerA_rating 25.00;
  powerB_rating 25.00;
  powerC_rating 25.00;
  install_type PADMOUNT;
  connect_type WYE_WYE;
  primary_voltage 34500.0;
  secondary_voltage 208.0;
  resistance 0.01600;
  reactance 0.02420;
  shunt_resistance 158.73;
  shunt_reactance 30.86;
}
object transformer_configuration {
  name XF3_PADMOUNT_ABCN_750;
  power_rating 750.00;
  powerA_rating 250.00;
  powerB_rating 250.00;
  powerC_rating 250.00;
  install_type PADMOUNT;
  connect_type WYE_WYE;
  primary_voltage 34500.0;
  secondary_voltage 480.0;
  resistance 0.00970;
  reactance 0.05110;
  shunt_resistance 227.27;
  shunt_reactance 52.91;
}
object transformer_configuration {
  name XF3_PADMOUNT_ABCN_150;
  power_rating 150.00;
  powerA_rating 50.00;
  powerB_rating 50.00;
  powerC_rating 50.00;
  install_type PADMOUNT;
  connect_type WYE_WYE;
  primary_voltage 34500.0;
  secondary_voltage 480.0;
  resistance 0.01300;
  reactance 0.03250;
  shunt_resistance 185.19;
  shunt_reactance 36.36;
}
object transformer_configuration {
  name XF1_PADMOUNT_CN_37p5;
  power_rating 37.50;
  powerA_rating 0.0;
  powerB_rating 0.0;
  powerC_rating 37.50;
  install_type PADMOUNT;
  connect_type WYE_WYE;
  primary_voltage 34500.0;
  secondary_voltage 208.0;
  resistance 0.01750;
  reactance 0.02120;
  shunt_resistance 142.86;
  shunt_reactance 25.38;
}
object transformer_configuration {
  name XF1_PADMOUNT_CN_25;
  power_rating 25.00;
  powerA_rating 0.0;
  powerB_rating 0.0;
  powerC_rating 25.00;
  install_type PADMOUNT;
  connect_type WYE_WYE;
  primary_voltage 34500.0;
  secondary_voltage 208.0;
  resistance 0.01900;
  reactance 0.01770;
  shunt_resistance 126.58;
  shunt_reactance 22.57;
}
object transformer_configuration {
  name XF1_PADMOUNT_CN_5;
  power_rating 5.00;
  powerA_rating 0.0;
  powerB_rating 0.0;
  powerC_rating 5.00;
  install_type PADMOUNT;
  connect_type WYE_WYE;
  primary_voltage 34500.0;
  secondary_voltage 208.0;
  resistance 0.01900;
  reactance 0.01770;
  shunt_resistance 126.58;
  shunt_reactance 22.57;
}
object transformer_configuration {
  name XF1_PADMOUNT_CN_10;
  power_rating 10.00;
  powerA_rating 0.0;
  powerB_rating 0.0;
  powerC_rating 10.00;
  install_type PADMOUNT;
  connect_type WYE_WYE;
  primary_voltage 34500.0;
  secondary_voltage 208.0;
  resistance 0.01900;
  reactance 0.01770;
  shunt_resistance 126.58;
  shunt_reactance 22.57;
}
object transformer_configuration {
  name XF1_PADMOUNT_AN_5;
  power_rating 5.00;
  powerA_rating 5.00;
  powerB_rating 0.0;
  powerC_rating 0.0;
  install_type PADMOUNT;
  connect_type WYE_WYE;
  primary_voltage 34500.0;
  secondary_voltage 208.0;
  resistance 0.01900;
  reactance 0.01770;
  shunt_resistance 126.58;
  shunt_reactance 22.57;
}
object transformer_configuration {
  name XF3_PADMOUNT_ABCN_112p5;
  power_rating 112.50;
  powerA_rating 37.50;
  powerB_rating 37.50;
  powerC_rating 37.50;
  install_type PADMOUNT;
  connect_type WYE_WYE;
  primary_voltage 34500.0;
  secondary_voltage 480.0;
  resistance 0.01450;
  reactance 0.02850;
  shunt_resistance 169.49;
  shunt_reactance 33.44;
}
object transformer_configuration {
  name XF1_PADMOUNT_AN_167;
  power_rating 167.00;
  powerA_rating 167.00;
  powerB_rating 0.0;
  powerC_rating 0.0;
  install_type PADMOUNT;
  connect_type WYE_WYE;
  primary_voltage 34500.0;
  secondary_voltage 480.0;
  resistance 0.01300;
  reactance 0.03520;
  shunt_resistance 200.00;
  shunt_reactance 40.00;
}
object transformer_configuration {
  name XF1_PADMOUNT_AN_10;
  power_rating 10.00;
  powerA_rating 10.00;
  powerB_rating 0.0;
  powerC_rating 0.0;
  install_type PADMOUNT;
  connect_type WYE_WYE;
  primary_voltage 34500.0;
  secondary_voltage 208.0;
  resistance 0.01900;
  reactance 0.01770;
  shunt_resistance 126.58;
  shunt_reactance 22.57;
}
object transformer_configuration {
  name XF3_PADMOUNT_ABCN_1500;
  power_rating 1500.00;
  powerA_rating 500.00;
  powerB_rating 500.00;
  powerC_rating 500.00;
  install_type PADMOUNT;
  connect_type WYE_WYE;
  primary_voltage 34500.0;
  secondary_voltage 480.0;
  resistance 0.00780;
  reactance 0.05700;
  shunt_resistance 256.41;
  shunt_reactance 66.23;
}
object transformer_configuration {
  name XF1_PADMOUNT_BN_5;
  power_rating 5.00;
  powerA_rating 0.0;
  powerB_rating 5.00;
  powerC_rating 0.0;
  install_type PADMOUNT;
  connect_type WYE_WYE;
  primary_voltage 34500.0;
  secondary_voltage 208.0;
  resistance 0.01900;
  reactance 0.01770;
  shunt_resistance 126.58;
  shunt_reactance 22.57;
}
object transformer_configuration {
  name XF1_PADMOUNT_BN_37p5;
  power_rating 37.50;
  powerA_rating 0.0;
  powerB_rating 37.50;
  powerC_rating 0.0;
  install_type PADMOUNT;
  connect_type WYE_WYE;
  primary_voltage 34500.0;
  secondary_voltage 208.0;
  resistance 0.01750;
  reactance 0.02120;
  shunt_resistance 142.86;
  shunt_reactance 25.38;
}
object transformer_configuration {
  name XF1_PADMOUNT_CN_15;
  power_rating 15.00;
  powerA_rating 0.0;
  powerB_rating 0.0;
  powerC_rating 15.00;
  install_type PADMOUNT;
  connect_type WYE_WYE;
  primary_voltage 34500.0;
  secondary_voltage 208.0;
  resistance 0.01900;
  reactance 0.01770;
  shunt_resistance 126.58;
  shunt_reactance 22.57;
}
object transformer_configuration {
  name XF1_PADMOUNT_AN_75;
  power_rating 75.00;
  powerA_rating 75.00;
  powerB_rating 0.0;
  powerC_rating 0.0;
  install_type PADMOUNT;
  connect_type WYE_WYE;
  primary_voltage 34500.0;
  secondary_voltage 208.0;
  resistance 0.01600;
  reactance 0.02420;
  shunt_resistance 158.73;
  shunt_reactance 30.86;
}
object transformer_configuration {
  name XF1_PADMOUNT_CN_167;
  power_rating 167.00;
  powerA_rating 0.0;
  powerB_rating 0.0;
  powerC_rating 167.00;
  install_type PADMOUNT;
  connect_type WYE_WYE;
  primary_voltage 34500.0;
  secondary_voltage 480.0;
  resistance 0.01300;
  reactance 0.03520;
  shunt_resistance 200.00;
  shunt_reactance 40.00;
}
object transformer_configuration {
  name XF1_PADMOUNT_CN_100;
  power_rating 100.00;
  powerA_rating 0.0;
  powerB_rating 0.0;
  powerC_rating 100.00;
  install_type PADMOUNT;
  connect_type WYE_WYE;
  primary_voltage 34500.0;
  secondary_voltage 208.0;
  resistance 0.01450;
  reactance 0.02850;
  shunt_resistance 169.49;
  shunt_reactance 33.44;
}
object regulator_configuration {
  name feeder_reg_cfg;
  Control OUTPUT_VOLTAGE;
  band_center 20748.0;
  band_width 332;
  connect_type WYE_WYE;
  time_delay 30;
  raise_taps 16;
  lower_taps 16;
  regulation 0.10;
  tap_pos_A 0;
  tap_pos_B 0;
  tap_pos_C 0;
}
object overhead_line_conductor {
  name ID_498;
  rating.summer.continuous 714.0;
  geometric_mean_radius 0.01703 ft;
  resistance 0.21600;
}
object line_spacing {
  name ID_55;
  distance_AB 12.0 in;
  distance_BC 12.0 in;
  distance_AC 12.0 in;
  distance_AN 360.0 in;
  distance_BN 360.0 in;
  distance_CN 360.0 in;
}
object line_spacing {
  name ID_56;
  distance_AN 360.0 in;
}
object line_spacing {
  name ID_57;
  distance_AB 65.90000000004 in;
  distance_BC 65.90000000004 in;
  distance_AC 65.90000000004 in;
  distance_AN 85.59999999996 in;
  distance_BN 85.59999999996 in;
  distance_CN 85.59999999996 in;
}
object line_spacing {
  name ID_58;
  distance_BN 360.0 in;
}
object line_spacing {
  name ID_59;
  distance_CN 360.0 in;
}
object line_spacing {
  name ID_60;
  distance_AB 60.50000000004 in;
  distance_BC 60.50000000004 in;
  distance_AC 60.50000000004 in;
  distance_AN 84.6 in;
  distance_BN 84.6 in;
  distance_CN 84.6 in;
}
object line_configuration {
  name ID_40;
  conductor_A ID_1862;
  conductor_B ID_1862;
  conductor_C ID_1862;
  conductor_N ID_1862;
  spacing ID_55;
}
object line_configuration {
  name ID_41;
  conductor_A ID_1863;
  conductor_B ID_1863;
  conductor_C ID_1863;
  conductor_N ID_1863;
  spacing ID_55;
}
object line_configuration {
  name ID_42;
  conductor_A ID_1864;
  conductor_N ID_1864;
  spacing ID_56;
}
object line_configuration {
  name ID_43;
  conductor_A ID_1865;
  conductor_N ID_1865;
  spacing ID_56;
}
object line_configuration {
  name ID_44;
  conductor_A ID_498;
  conductor_B ID_498;
  conductor_C ID_498;
  conductor_N ID_498;
  spacing ID_57;
}
object line_configuration {
  name ID_45;
  conductor_B ID_1865;
  conductor_N ID_1865;
  spacing ID_58;
}
object line_configuration {
  name ID_46;
  conductor_A ID_1863;
  conductor_N ID_1863;
  spacing ID_56;
}
object line_configuration {
  name ID_47;
  conductor_A ID_1865;
  conductor_B ID_1865;
  conductor_C ID_1865;
  conductor_N ID_1865;
  spacing ID_55;
}
object line_configuration {
  name ID_48;
  conductor_C ID_1863;
  conductor_N ID_1863;
  spacing ID_59;
}
object line_configuration {
  name ID_49;
  conductor_C ID_1862;
  conductor_N ID_1862;
  spacing ID_59;
}
object line_configuration {
  name ID_50;
  conductor_C ID_1865;
  conductor_N ID_1865;
  spacing ID_59;
}
object line_configuration {
  name ID_51;
  conductor_B ID_1862;
  conductor_N ID_1862;
  spacing ID_58;
}
object line_configuration {
  name ID_52;
  conductor_B ID_1863;
  conductor_N ID_1863;
  spacing ID_58;
}
object line_configuration {
  name ID_53;
  conductor_A ID_1862;
  conductor_N ID_1862;
  spacing ID_56;
}
object line_configuration {
  name ID_54;
  conductor_A ID_498;
  conductor_B ID_498;
  conductor_C ID_498;
  conductor_N ID_498;
  spacing ID_60;
}
object triplex_line_conductor {
  name triplex_4/0_aa;
  resistance 0.48;
  geometric_mean_radius 0.0158;
  rating.summer.continuous 1200.0;
  rating.summer.emergency 1200.0;
  rating.winter.continuous 1200.0;
  rating.winter.emergency 1200.0;
}
object triplex_line_configuration {
  name ID_830;
  conductor_1 triplex_4/0_aa;
  conductor_2 triplex_4/0_aa;
  conductor_N triplex_4/0_aa;
  insulation_thickness 0.08;
  diameter 0.522;
  rating.summer.continuous 1200.0;
  rating.summer.emergency 1200.0;
  rating.winter.continuous 1200.0;
  rating.winter.emergency 1200.0;
}
object underground_line_conductor {
  name ID_1862;
  rating.summer.continuous 425.0;
  outer_diameter 1.96;
  conductor_gmr 0.0321 ft;
  conductor_diameter 0.998;
  conductor_resistance 0.122496;
  neutral_gmr 0.00330 ft;
  neutral_resistance 5.9026;
  neutral_diameter 0.1019;
  neutral_strands 15.0;
  insulation_relative_permitivitty 2.3;
}
object underground_line_conductor {
  name ID_1863;
  rating.summer.continuous 214.0;
  outer_diameter 1.32;
  conductor_gmr 0.0177 ft;
  conductor_diameter 0.528;
  conductor_resistance 0.433488;
  neutral_gmr 0.00208 ft;
  neutral_resistance 14.87;
  neutral_diameter 0.0641;
  neutral_strands 11.0;
  insulation_relative_permitivitty 2.3;
}
object underground_line_conductor {
  name ID_1864;
  rating.summer.continuous 112.0;
  outer_diameter 1.09;
  conductor_gmr 0.0088 ft;
  conductor_diameter 0.292;
  conductor_resistance 1.38336;
  neutral_gmr 0.00208 ft;
  neutral_resistance 14.87;
  neutral_diameter 0.0641;
  neutral_strands 6.0;
  insulation_relative_permitivitty 2.3;
}
object underground_line_conductor {
  name ID_1865;
  rating.summer.continuous 142.0;
  outer_diameter 1.27;
  conductor_gmr 0.01142 ft;
  conductor_diameter 0.362;
  conductor_resistance 0.88704;
  neutral_gmr 0.00208 ft;
  neutral_resistance 14.87;
  neutral_diameter 0.0641;
  neutral_strands 16.0;
  insulation_relative_permitivitty 2.3;
}
object fuse {
  name R5_35_00_1_fuse_1;
// downstream 3488.72 kva on ABCS
  phases ABCN;
  from R5_35_00_1_node_279;
  to R5_35_00_1_node_1;
  current_limit 200;
  status CLOSED;
  mean_replacement_time 3600;
}
object fuse {
  name R5_35_00_1_fuse_2;
// downstream 2114.55 kva on ABCS
  phases ABCN;
  from R5_35_00_1_node_278;
  to R5_35_00_1_node_2;
  current_limit 100;
  status CLOSED;
  mean_replacement_time 3600;
}
object fuse {
  name R5_35_00_1_fuse_3;
// downstream 111.80 kva on CS
  phases CN;
  from R5_35_00_1_node_25;
  to R5_35_00_1_node_24;
  current_limit 40;
  status CLOSED;
  mean_replacement_time 3600;
}
object fuse {
  name R5_35_00_1_fuse_4;
// downstream 23.39 kva on CS
  phases CN;
  from R5_35_00_1_node_26;
  to R5_35_00_1_node_30;
  current_limit 40;
  status CLOSED;
  mean_replacement_time 3600;
}
object fuse {
  name R5_35_00_1_fuse_5;
// downstream 479.29 kva on BS
  phases BN;
  from R5_35_00_1_node_238;
  to R5_35_00_1_node_51;
  current_limit 65;
  status CLOSED;
  mean_replacement_time 3600;
}
object fuse {
  name R5_35_00_1_fuse_6;
// downstream 582.47 kva on CS
  phases CN;
  from R5_35_00_1_node_242;
  to R5_35_00_1_node_52;
  current_limit 100;
  status CLOSED;
  mean_replacement_time 3600;
}
object fuse {
  name R5_35_00_1_fuse_7;
// downstream 1176.03 kva on AS
  phases AN;
  from R5_35_00_1_node_241;
  to R5_35_00_1_node_57;
  current_limit 200;
  status CLOSED;
  mean_replacement_time 3600;
}
object fuse {
  name R5_35_00_1_fuse_8;
// downstream 638.11 kva on BS
  phases BN;
  from R5_35_00_1_node_222;
  to R5_35_00_1_node_65;
  current_limit 100;
  status CLOSED;
  mean_replacement_time 3600;
}
object fuse {
  name R5_35_00_1_fuse_9;
// downstream 921.75 kva on CS
  phases CN;
  from R5_35_00_1_node_221;
  to R5_35_00_1_node_75;
  current_limit 200;
  status CLOSED;
  mean_replacement_time 3600;
}
object fuse {
  name R5_35_00_1_fuse_10;
// downstream 886.81 kva on CS
  phases CN;
  from R5_35_00_1_node_272;
  to R5_35_00_1_node_91;
  current_limit 200;
  status CLOSED;
  mean_replacement_time 3600;
}
object fuse {
  name R5_35_00_1_fuse_11;
// downstream 745.72 kva on BS
  phases BN;
  from R5_35_00_1_node_271;
  to R5_35_00_1_node_101;
  current_limit 100;
  status CLOSED;
  mean_replacement_time 3600;
}
object fuse {
  name R5_35_00_1_fuse_12;
// downstream 921.71 kva on AS
  phases AN;
  from R5_35_00_1_node_273;
  to R5_35_00_1_node_103;
  current_limit 200;
  status CLOSED;
  mean_replacement_time 3600;
}
object fuse {
  name R5_35_00_1_fuse_13;
// downstream 189.59 kva on AS
  phases AN;
  from R5_35_00_1_node_288;
  to R5_35_00_1_node_110;
  current_limit 40;
  status CLOSED;
  mean_replacement_time 3600;
}
object fuse {
  name R5_35_00_1_fuse_14;
// downstream 243.79 kva on BS
  phases BN;
  from R5_35_00_1_node_230;
  to R5_35_00_1_node_112;
  current_limit 40;
  status CLOSED;
  mean_replacement_time 3600;
}
object fuse {
  name R5_35_00_1_fuse_15;
// downstream 429.26 kva on CS
  phases CN;
  from R5_35_00_1_node_227;
  to R5_35_00_1_node_113;
  current_limit 65;
  status CLOSED;
  mean_replacement_time 3600;
}
object fuse {
  name R5_35_00_1_fuse_16;
// downstream 169.10 kva on AS
  phases AN;
  from R5_35_00_1_node_231;
  to R5_35_00_1_node_114;
  current_limit 40;
  status CLOSED;
  mean_replacement_time 3600;
}
object fuse {
  name R5_35_00_1_fuse_17;
// downstream 444.20 kva on CS
  phases CN;
  from R5_35_00_1_node_263;
  to R5_35_00_1_node_133;
  current_limit 65;
  status CLOSED;
  mean_replacement_time 3600;
}
object fuse {
  name R5_35_00_1_fuse_18;
// downstream 600.27 kva on BS
  phases BN;
  from R5_35_00_1_node_264;
  to R5_35_00_1_node_134;
  current_limit 100;
  status CLOSED;
  mean_replacement_time 3600;
}
object fuse {
  name R5_35_00_1_fuse_19;
// downstream 554.68 kva on AS
  phases AN;
  from R5_35_00_1_node_220;
  to R5_35_00_1_node_143;
  current_limit 100;
  status CLOSED;
  mean_replacement_time 3600;
}
object fuse {
  name R5_35_00_1_fuse_20;
// downstream 590.47 kva on CS
  phases CN;
  from R5_35_00_1_node_249;
  to R5_35_00_1_node_152;
  current_limit 100;
  status CLOSED;
  mean_replacement_time 3600;
}
object fuse {
  name R5_35_00_1_fuse_21;
// downstream 303.95 kva on ABCS
  phases ABCN;
  from R5_35_00_1_node_165;
  to R5_35_00_1_node_166;
  current_limit 40;
  status CLOSED;
  mean_replacement_time 3600;
}
object fuse {
  name R5_35_00_1_fuse_22;
// downstream 14422.04 kva on ABCS
  phases ABCN;
  from R5_35_00_1_node_197;
  to R5_35_00_1_node_196;
  current_limit 630;
  status CLOSED;
  mean_replacement_time 3600;
}
object fuse {
  name R5_35_00_1_fuse_23;
// downstream 337.34 kva on ABC
  phases ABCN;
  from R5_35_00_1_node_206;
  to R5_35_00_1_node_200;
  current_limit 40;
  status CLOSED;
  mean_replacement_time 3600;
}
object fuse {
  name R5_35_00_1_fuse_24;
// downstream 14759.38 kva on ABCS
  phases ABCN;
  from R5_35_00_1_node_205;
  to R5_35_00_1_node_204;
  current_limit 630;
  status CLOSED;
  mean_replacement_time 3600;
}
object fuse {
  name R5_35_00_1_fuse_25;
// downstream 16382.39 kva on ABCS
  phases ABCN;
  from R5_35_00_1_node_214;
  to R5_35_00_1_node_210;
  current_limit 800;
  status CLOSED;
  mean_replacement_time 3600;
}
object fuse {
  name R5_35_00_1_fuse_26;
  phases ABCN;
  from R5_35_00_1_node_213;
  to R5_35_00_1_node_212;
  current_limit 50000;
  status CLOSED;
  mean_replacement_time 3600;
}
object fuse {
  name R5_35_00_1_fuse_27;
// downstream 16382.39 kva on ABCS
  phases ABCN;
  from R5_35_00_1_node_324;
  to R5_35_00_1_node_214;
  current_limit 800;
  status CLOSED;
  mean_replacement_time 3600;
}
object fuse {
  name R5_35_00_1_fuse_28;
// downstream 1494.14 kva on ABCS
  phases ABCN;
  from R5_35_00_1_node_247;
  to R5_35_00_1_node_245;
  current_limit 65;
  status CLOSED;
  mean_replacement_time 3600;
}
object fuse {
  name R5_35_00_1_fuse_29;
// downstream 578.54 kva on AS
  phases AN;
  from R5_35_00_1_node_265;
  to R5_35_00_1_node_255;
  current_limit 100;
  status CLOSED;
  mean_replacement_time 3600;
}
object fuse {
  name R5_35_00_1_fuse_30;
  phases ABCN;
  from R5_35_00_1_node_262;
  to R5_35_00_1_node_256;
  current_limit 50000;
  status CLOSED;
  mean_replacement_time 3600;
}
object fuse {
  name R5_35_00_1_fuse_31;
// downstream 336.15 kva on CS
  phases CN;
  from R5_35_00_1_node_292;
  to R5_35_00_1_node_283;
  current_limit 65;
  status CLOSED;
  mean_replacement_time 3600;
}
object fuse {
  name R5_35_00_1_fuse_32;
// downstream 456.18 kva on BS
  phases BN;
  from R5_35_00_1_node_291;
  to R5_35_00_1_node_295;
  current_limit 65;
  status CLOSED;
  mean_replacement_time 3600;
}
object fuse {
  name R5_35_00_1_fuse_33;
// downstream 727.77 kva on CS
  phases CN;
  from R5_35_00_1_node_314;
  to R5_35_00_1_node_301;
  current_limit 100;
  status CLOSED;
  mean_replacement_time 3600;
}
object fuse {
  name R5_35_00_1_fuse_34;
// downstream 974.48 kva on AS
  phases AN;
  from R5_35_00_1_node_315;
  to R5_35_00_1_node_302;
  current_limit 200;
  status CLOSED;
  mean_replacement_time 3600;
}
object fuse {
  name R5_35_00_1_fuse_35;
// downstream 530.90 kva on BS
  phases BN;
  from R5_35_00_1_node_316;
  to R5_35_00_1_node_307;
  current_limit 100;
  status CLOSED;
  mean_replacement_time 3600;
}
object fuse {
  name R5_35_00_1_fuse_36;
// downstream 221.11 kva on ABC
  phases ABCN;
  from R5_35_00_1_node_322;
  to R5_35_00_1_node_325;
  current_limit 40;
  status CLOSED;
  mean_replacement_time 3600;
}
object switch {
  name R5_35_00_1_switch_1;
  phases ABCN;
  from R5_35_00_1_node_9;
  to R5_35_00_1_node_10;
  status CLOSED;
}
object switch {
  name R5_35_00_1_switch_2;
  phases ABCN;
  from R5_35_00_1_node_195;
  to R5_35_00_1_node_154;
  status CLOSED;
}
object switch {
  name R5_35_00_1_switch_3;
  phases ABCN;
  from R5_35_00_1_node_243;
  to R5_35_00_1_node_164;
  status CLOSED;
}
object switch {
  name R5_35_00_1_switch_4;
  phases ABCN;
  from R5_35_00_1_node_17;
  to R5_35_00_1_node_193;
  status CLOSED;
}
object switch {
  name R5_35_00_1_switch_5;
  phases ABCN;
  from R5_35_00_1_node_323;
  to R5_35_00_1_node_194;
  status CLOSED;
}
object switch {
  name R5_35_00_1_switch_6;
// downstream 14118.09 kva on ABCS
  phases ABCN;
  from R5_35_00_1_node_196;
  to R5_35_00_1_node_198;
  status CLOSED;
}
object switch {
  name R5_35_00_1_switch_7;
  phases ABCN;
  from R5_35_00_1_node_196;
  to R5_35_00_1_node_199;
  status CLOSED;
}
object switch {
  name R5_35_00_1_switch_8;
  phases ABCN;
  from R5_35_00_1_node_203;
  to R5_35_00_1_node_207;
  status CLOSED;
}
object switch {
  name R5_35_00_1_switch_9;
// downstream 14422.04 kva on ABCS
  phases ABCN;
  from R5_35_00_1_node_203;
  to R5_35_00_1_node_208;
  status CLOSED;
}
object switch {
  name R5_35_00_1_switch_10;
  phases ABCN;
  from R5_35_00_1_node_211;
  to R5_35_00_1_node_215;
  status CLOSED;
}
object switch {
  name R5_35_00_1_switch_11;
// downstream 16382.39 kva on ABCS
  phases ABCN;
  from R5_35_00_1_node_211;
  to R5_35_00_1_node_216;
  status CLOSED;
}
object switch {
  name R5_35_00_1_switch_12;
// downstream 2114.55 kva on ABCS
  phases ABCN;
  from R5_35_00_1_node_2;
  to R5_35_00_1_node_223;
  status CLOSED;
}
object switch {
  name R5_35_00_1_switch_13;
  phases ABCN;
  from R5_35_00_1_node_217;
  to R5_35_00_1_node_224;
  status CLOSED;
}
object switch {
  name R5_35_00_1_switch_14;
// downstream 5588.07 kva on ABCS
  phases ABCN;
  from R5_35_00_1_node_225;
  to R5_35_00_1_node_232;
  status CLOSED;
}
object switch {
  name R5_35_00_1_switch_15;
// downstream 6430.22 kva on ABCS
  phases ABCN;
  from R5_35_00_1_node_280;
  to R5_35_00_1_node_233;
  status CLOSED;
}
object switch {
  name R5_35_00_1_switch_16;
  phases ABCN;
  from R5_35_00_1_node_237;
  to R5_35_00_1_node_243;
  status CLOSED;
}
object switch {
  name R5_35_00_1_switch_17;
// downstream 2349.60 kva on ABCS
  phases ABCN;
  from R5_35_00_1_node_311;
  to R5_35_00_1_node_244;
  status CLOSED;
}
object switch {
  name R5_35_00_1_switch_18;
// downstream 12033.49 kva on ABCS
  phases ABCN;
  from R5_35_00_1_node_246;
  to R5_35_00_1_node_250;
  status CLOSED;
}
object switch {
  name R5_35_00_1_switch_19;
// downstream 14118.09 kva on ABCS
  phases ABCN;
  from R5_35_00_1_node_198;
  to R5_35_00_1_node_251;
  status CLOSED;
}
object switch {
  name R5_35_00_1_switch_20;
  phases ABCN;
  from R5_35_00_1_node_202;
  to R5_35_00_1_node_252;
  status CLOSED;
}
object switch {
  name R5_35_00_1_switch_21;
// downstream 16603.49 kva on ABCS
  phases ABCN;
  from R5_35_00_1_node_253;
  to R5_35_00_1_node_254;
  status CLOSED;
}
object switch {
  name R5_35_00_1_switch_22;
// downstream 14759.38 kva on ABCS
  phases ABCN;
  from R5_35_00_1_node_258;
  to R5_35_00_1_node_266;
  status CLOSED;
}
object switch {
  name R5_35_00_1_switch_23;
// downstream 16382.39 kva on ABCS
  phases ABCN;
  from R5_35_00_1_node_209;
  to R5_35_00_1_node_267;
  status CLOSED;
}
object switch {
  name R5_35_00_1_switch_24;
// downstream 3488.72 kva on ABCS
  phases ABCN;
  from R5_35_00_1_node_188;
  to R5_35_00_1_node_274;
  status CLOSED;
}
object switch {
  name R5_35_00_1_switch_25;
// downstream 934.48 kva on ABC
  phases ABCN;
  from R5_35_00_1_node_268;
  to R5_35_00_1_node_275;
  status CLOSED;
}
object switch {
  name R5_35_00_1_switch_26;
// downstream 6430.22 kva on ABCS
  phases ABCN;
  from R5_35_00_1_node_276;
  to R5_35_00_1_node_280;
  status CLOSED;
}
object switch {
  name R5_35_00_1_switch_27;
// downstream 12033.49 kva on ABCS
  phases ABCN;
  from R5_35_00_1_node_250;
  to R5_35_00_1_node_281;
  status CLOSED;
}
object switch {
  name R5_35_00_1_switch_28;
// downstream 4606.14 kva on ABCS
  phases ABCN;
  from R5_35_00_1_node_286;
  to R5_35_00_1_node_293;
  status CLOSED;
}
object switch {
  name R5_35_00_1_switch_29;
// downstream 5588.07 kva on ABCS
  phases ABCN;
  from R5_35_00_1_node_232;
  to R5_35_00_1_node_294;
  status CLOSED;
}
object switch {
  name R5_35_00_1_switch_30;
// downstream 4606.14 kva on ABCS
  phases ABCN;
  from R5_35_00_1_node_67;
  to R5_35_00_1_node_310;
  status CLOSED;
}
object switch {
  name R5_35_00_1_switch_31;
// downstream 2349.60 kva on ABCS
  phases ABCN;
  from R5_35_00_1_node_308;
  to R5_35_00_1_node_311;
  status CLOSED;
}
object switch {
  name R5_35_00_1_switch_32;
// downstream 16603.49 kva on ABCS
  phases ABCN;
  from R5_35_00_1_node_254;
  to R5_35_00_1_node_317;
  status CLOSED;
}
object switch {
  name R5_35_00_1_switch_33;
// downstream 16603.49 kva on ABCS
  phases ABCN;
  from R5_35_00_1_node_318;
  to R5_35_00_1_node_321;
  status CLOSED;
}
object switch {
  name R5_35_00_1_switch_34;
  phases ABCN;
  from R5_35_00_1_node_320;
  to R5_35_00_1_node_323;
  status CLOSED;
}
object switch {
  name R5_35_00_1_switch_35;
// downstream 16603.49 kva on ABCS
  phases ABCN;
  from R5_35_00_1_node_9;
  to R5_35_00_1_node_327;
  status CLOSED;
}
object overhead_line {
  name R5_35_00_1_ol_1;
// downstream 16603.49 kva on ABCS
  phases ABCN;
  from R5_35_00_1_node_68;
  to R5_35_00_1_node_9;
  length 28.000;
  configuration ID_44;
}
object overhead_line {
  name R5_35_00_1_ol_2;
// downstream 16603.49 kva on ABCS
  phases ABCN;
  from R5_35_00_1_node_317;
  to R5_35_00_1_node_318;
  length 25.000;
  configuration ID_54;
}
object overhead_line {
  name R5_35_00_1_ol_3;
// downstream 16603.49 kva on ABCS
  phases ABCN;
  from R5_35_00_1_node_327;
  to R5_35_00_1_node_329;
  length 23.000;
  configuration ID_44;
}
object underground_line {
  name R5_35_00_1_ul_1;
// downstream 337.34 kva on ABC
  phases ABCN;
  from R5_35_00_1_node_200;
  to R5_35_00_1_node_3;
  length 1994.000;
  configuration ID_41;
}
object underground_line {
  name R5_35_00_1_ul_2;
// downstream 165.46 kva on AS
  phases AN;
  from R5_35_00_1_node_5;
  to R5_35_00_1_node_4;
  length 523.000;
  configuration ID_42;
}
object underground_line {
  name R5_35_00_1_ul_3;
// downstream 222.02 kva on AS
  phases AN;
  from R5_35_00_1_node_7;
  to R5_35_00_1_node_5;
  length 647.000;
  configuration ID_43;
}
object underground_line {
  name R5_35_00_1_ul_4;
// downstream 355.52 kva on AS
  phases AN;
  from R5_35_00_1_node_136;
  to R5_35_00_1_node_6;
  length 511.000;
  configuration ID_43;
}
object underground_line {
  name R5_35_00_1_ul_5;
// downstream 305.50 kva on AS
  phases AN;
  from R5_35_00_1_node_6;
  to R5_35_00_1_node_7;
  length 450.000;
  configuration ID_42;
}
object underground_line {
  name R5_35_00_1_ul_6;
// downstream 71.42 kva on ABC
  phases ABCN;
  from R5_35_00_1_node_330;
  to R5_35_00_1_node_8;
  length 353.000;
  configuration ID_41;
}
object underground_line {
  name R5_35_00_1_ul_7;
// downstream 52.69 kva on ABC
  phases ABCN;
  from R5_35_00_1_node_8;
  to R5_35_00_1_node_11;
  length 518.000;
  configuration ID_41;
}
object underground_line {
  name R5_35_00_1_ul_8;
// downstream 515.75 kva on AS
  phases AN;
  from R5_35_00_1_node_97;
  to R5_35_00_1_node_12;
  length 464.000;
  configuration ID_43;
}
object underground_line {
  name R5_35_00_1_ul_9;
// downstream 201.11 kva on BS
  phases BN;
  from R5_35_00_1_node_16;
  to R5_35_00_1_node_13;
  length 732.000;
  configuration ID_45;
}
object underground_line {
  name R5_35_00_1_ul_10;
// downstream 111.32 kva on AS
  phases AN;
  from R5_35_00_1_node_15;
  to R5_35_00_1_node_14;
  length 520.000;
  configuration ID_43;
}
object underground_line {
  name R5_35_00_1_ul_11;
// downstream 165.46 kva on AS
  phases AN;
  from R5_35_00_1_node_4;
  to R5_35_00_1_node_15;
  length 152.000;
  configuration ID_43;
}
object underground_line {
  name R5_35_00_1_ul_12;
// downstream 242.13 kva on BS
  phases BN;
  from R5_35_00_1_node_73;
  to R5_35_00_1_node_16;
  length 277.000;
  configuration ID_45;
}
object underground_line {
  name R5_35_00_1_ul_13;
// downstream 447.97 kva on ABC
  phases ABCN;
  from R5_35_00_1_node_192;
  to R5_35_00_1_node_17;
  length 423.000;
  configuration ID_40;
}
object underground_line {
  name R5_35_00_1_ul_14;
// downstream 433.31 kva on AS
  phases AN;
  from R5_35_00_1_node_156;
  to R5_35_00_1_node_18;
  length 295.000;
  configuration ID_46;
}
object underground_line {
  name R5_35_00_1_ul_15;
// downstream 1494.14 kva on ABCS
  phases ABCN;
  from R5_35_00_1_node_245;
  to R5_35_00_1_node_19;
  length 1711.000;
  configuration ID_47;
}
object underground_line {
  name R5_35_00_1_ul_16;
// downstream 179.07 kva on ABCS
  phases ABCN;
  from R5_35_00_1_node_167;
  to R5_35_00_1_node_20;
  length 484.000;
  configuration ID_47;
}
object underground_line {
  name R5_35_00_1_ul_17;
// downstream 106.98 kva on ABC
  phases ABCN;
  from R5_35_00_1_node_22;
  to R5_35_00_1_node_21;
  length 210.000;
  configuration ID_41;
}
object underground_line {
  name R5_35_00_1_ul_18;
// downstream 127.20 kva on ABCS
  phases ABCN;
  from R5_35_00_1_node_20;
  to R5_35_00_1_node_22;
  length 175.000;
  configuration ID_41;
}
object underground_line {
  name R5_35_00_1_ul_19;
// downstream 67.08 kva on CS
  phases CN;
  from R5_35_00_1_node_24;
  to R5_35_00_1_node_23;
  length 1180.000;
  configuration ID_48;
}
object underground_line {
  name R5_35_00_1_ul_20;
// downstream 111.80 kva on CS
  phases CN;
  from R5_35_00_1_node_237;
  to R5_35_00_1_node_25;
  length 2.000;
  configuration ID_49;
}
object underground_line {
  name R5_35_00_1_ul_21;
// downstream 23.39 kva on CS
  phases CN;
  from R5_35_00_1_node_313;
  to R5_35_00_1_node_26;
  length 1.000;
  configuration ID_49;
}
object underground_line {
  name R5_35_00_1_ul_22;
// downstream 1.03 kva on CS
  phases CN;
  from R5_35_00_1_node_30;
  to R5_35_00_1_node_27;
  length 443.000;
  configuration ID_48;
}
object underground_line {
  name R5_35_00_1_ul_23;
// downstream 0.81 kva on CS
  phases CN;
  from R5_35_00_1_node_27;
  to R5_35_00_1_node_28;
  length 1174.000;
  configuration ID_48;
}
object underground_line {
  name R5_35_00_1_ul_24;
// downstream 0.58 kva on CS
  phases CN;
  from R5_35_00_1_node_28;
  to R5_35_00_1_node_29;
  length 1484.000;
  configuration ID_48;
}
object underground_line {
  name R5_35_00_1_ul_25;
// downstream 896.35 kva on ABC
  phases ABCN;
  from R5_35_00_1_node_328;
  to R5_35_00_1_node_31;
  length 974.000;
  configuration ID_40;
}
object underground_line {
  name R5_35_00_1_ul_26;
// downstream 82.76 kva on CS
  phases CN;
  from R5_35_00_1_node_87;
  to R5_35_00_1_node_32;
  length 251.000;
  configuration ID_50;
}
object underground_line {
  name R5_35_00_1_ul_27;
// downstream 753.36 kva on CS
  phases CN;
  from R5_35_00_1_node_76;
  to R5_35_00_1_node_33;
  length 125.000;
  configuration ID_50;
}
object underground_line {
  name R5_35_00_1_ul_28;
// downstream 78.85 kva on CS
  phases CN;
  from R5_35_00_1_node_119;
  to R5_35_00_1_node_34;
  length 578.000;
  configuration ID_50;
}
object underground_line {
  name R5_35_00_1_ul_29;
// downstream 732.88 kva on AS
  phases AN;
  from R5_35_00_1_node_36;
  to R5_35_00_1_node_35;
  length 677.000;
  configuration ID_43;
}
object underground_line {
  name R5_35_00_1_ul_30;
// downstream 809.19 kva on AS
  phases AN;
  from R5_35_00_1_node_127;
  to R5_35_00_1_node_36;
  length 674.000;
  configuration ID_43;
}
object underground_line {
  name R5_35_00_1_ul_31;
// downstream 41.47 kva on AS
  phases AN;
  from R5_35_00_1_node_14;
  to R5_35_00_1_node_37;
  length 717.000;
  configuration ID_43;
}
object underground_line {
  name R5_35_00_1_ul_32;
// downstream 471.95 kva on ABC
  phases ABCN;
  from R5_35_00_1_node_83;
  to R5_35_00_1_node_38;
  length 977.000;
  configuration ID_40;
}
object underground_line {
  name R5_35_00_1_ul_33;
// downstream 48.36 kva on AS
  phases AN;
  from R5_35_00_1_node_105;
  to R5_35_00_1_node_39;
  length 429.000;
  configuration ID_43;
}
object underground_line {
  name R5_35_00_1_ul_34;
// downstream 64.71 kva on BS
  phases BN;
  from R5_35_00_1_node_121;
  to R5_35_00_1_node_40;
  length 308.000;
  configuration ID_45;
}
object underground_line {
  name R5_35_00_1_ul_35;
// downstream 77.47 kva on AS
  phases AN;
  from R5_35_00_1_node_140;
  to R5_35_00_1_node_41;
  length 591.000;
  configuration ID_43;
}
object underground_line {
  name R5_35_00_1_ul_36;
// downstream 58.05 kva on CS
  phases CN;
  from R5_35_00_1_node_43;
  to R5_35_00_1_node_42;
  length 559.000;
  configuration ID_50;
}
object underground_line {
  name R5_35_00_1_ul_37;
// downstream 104.46 kva on CS
  phases CN;
  from R5_35_00_1_node_44;
  to R5_35_00_1_node_43;
  length 580.000;
  configuration ID_50;
}
object underground_line {
  name R5_35_00_1_ul_38;
// downstream 145.03 kva on CS
  phases CN;
  from R5_35_00_1_node_169;
  to R5_35_00_1_node_44;
  length 500.000;
  configuration ID_50;
}
object underground_line {
  name R5_35_00_1_ul_39;
// downstream 375.08 kva on CS
  phases CN;
  from R5_35_00_1_node_46;
  to R5_35_00_1_node_45;
  length 419.000;
  configuration ID_50;
}
object underground_line {
  name R5_35_00_1_ul_40;
// downstream 498.54 kva on CS
  phases CN;
  from R5_35_00_1_node_52;
  to R5_35_00_1_node_46;
  length 661.000;
  configuration ID_50;
}
object underground_line {
  name R5_35_00_1_ul_41;
// downstream 116.30 kva on BS
  phases BN;
  from R5_35_00_1_node_48;
  to R5_35_00_1_node_47;
  length 269.000;
  configuration ID_45;
}
object underground_line {
  name R5_35_00_1_ul_42;
// downstream 171.11 kva on BS
  phases BN;
  from R5_35_00_1_node_49;
  to R5_35_00_1_node_48;
  length 292.000;
  configuration ID_45;
}
object underground_line {
  name R5_35_00_1_ul_43;
// downstream 274.78 kva on BS
  phases BN;
  from R5_35_00_1_node_50;
  to R5_35_00_1_node_49;
  length 232.000;
  configuration ID_45;
}
object underground_line {
  name R5_35_00_1_ul_44;
// downstream 373.87 kva on BS
  phases BN;
  from R5_35_00_1_node_51;
  to R5_35_00_1_node_50;
  length 412.000;
  configuration ID_45;
}
object underground_line {
  name R5_35_00_1_ul_45;
// downstream 283.92 kva on AS
  phases AN;
  from R5_35_00_1_node_58;
  to R5_35_00_1_node_53;
  length 343.000;
  configuration ID_43;
}
object underground_line {
  name R5_35_00_1_ul_46;
// downstream 186.92 kva on AS
  phases AN;
  from R5_35_00_1_node_55;
  to R5_35_00_1_node_54;
  length 675.000;
  configuration ID_43;
}
object underground_line {
  name R5_35_00_1_ul_47;
// downstream 227.49 kva on AS
  phases AN;
  from R5_35_00_1_node_53;
  to R5_35_00_1_node_55;
  length 298.000;
  configuration ID_43;
}
object underground_line {
  name R5_35_00_1_ul_48;
// downstream 1093.14 kva on AS
  phases AN;
  from R5_35_00_1_node_57;
  to R5_35_00_1_node_56;
  length 333.000;
  configuration ID_43;
}
object underground_line {
  name R5_35_00_1_ul_49;
// downstream 312.31 kva on AS
  phases AN;
  from R5_35_00_1_node_59;
  to R5_35_00_1_node_58;
  length 488.000;
  configuration ID_43;
}
object underground_line {
  name R5_35_00_1_ul_50;
// downstream 381.38 kva on AS
  phases AN;
  from R5_35_00_1_node_60;
  to R5_35_00_1_node_59;
  length 608.000;
  configuration ID_43;
}
object underground_line {
  name R5_35_00_1_ul_51;
// downstream 422.98 kva on AS
  phases AN;
  from R5_35_00_1_node_61;
  to R5_35_00_1_node_60;
  length 180.000;
  configuration ID_43;
}
object underground_line {
  name R5_35_00_1_ul_52;
// downstream 483.00 kva on AS
  phases AN;
  from R5_35_00_1_node_62;
  to R5_35_00_1_node_61;
  length 256.000;
  configuration ID_43;
}
object underground_line {
  name R5_35_00_1_ul_53;
// downstream 601.49 kva on AS
  phases AN;
  from R5_35_00_1_node_126;
  to R5_35_00_1_node_62;
  length 469.000;
  configuration ID_43;
}
object underground_line {
  name R5_35_00_1_ul_54;
// downstream 14.31 kva on CS
  phases CN;
  from R5_35_00_1_node_42;
  to R5_35_00_1_node_63;
  length 243.000;
  configuration ID_50;
}
object underground_line {
  name R5_35_00_1_ul_55;
// downstream 41.15 kva on AS
  phases AN;
  from R5_35_00_1_node_54;
  to R5_35_00_1_node_64;
  length 308.000;
  configuration ID_43;
}
object underground_line {
  name R5_35_00_1_ul_56;
// downstream 1008.55 kva on AS
  phases AN;
  from R5_35_00_1_node_56;
  to R5_35_00_1_node_66;
  length 264.000;
  configuration ID_43;
}
object underground_line {
  name R5_35_00_1_ul_57;
// downstream 4606.14 kva on ABCS
  phases ABCN;
  from R5_35_00_1_node_293;
  to R5_35_00_1_node_67;
  length 950.000;
  configuration ID_40;
}
object underground_line {
  name R5_35_00_1_ul_58;
// downstream 140.79 kva on BS
  phases BN;
  from R5_35_00_1_node_13;
  to R5_35_00_1_node_69;
  length 333.000;
  configuration ID_45;
}
object underground_line {
  name R5_35_00_1_ul_59;
// downstream 370.84 kva on CS
  phases CN;
  from R5_35_00_1_node_133;
  to R5_35_00_1_node_70;
  length 535.000;
  configuration ID_50;
}
object underground_line {
  name R5_35_00_1_ul_60;
// downstream 378.56 kva on BS
  phases BN;
  from R5_35_00_1_node_74;
  to R5_35_00_1_node_71;
  length 399.000;
  configuration ID_45;
}
object underground_line {
  name R5_35_00_1_ul_61;
// downstream 78.50 kva on BS
  phases BN;
  from R5_35_00_1_node_69;
  to R5_35_00_1_node_72;
  length 303.000;
  configuration ID_45;
}
object underground_line {
  name R5_35_00_1_ul_62;
// downstream 308.32 kva on BS
  phases BN;
  from R5_35_00_1_node_71;
  to R5_35_00_1_node_73;
  length 367.000;
  configuration ID_45;
}
object underground_line {
  name R5_35_00_1_ul_63;
// downstream 446.72 kva on BS
  phases BN;
  from R5_35_00_1_node_132;
  to R5_35_00_1_node_74;
  length 783.000;
  configuration ID_45;
}
object underground_line {
  name R5_35_00_1_ul_64;
// downstream 855.20 kva on CS
  phases CN;
  from R5_35_00_1_node_75;
  to R5_35_00_1_node_76;
  length 532.000;
  configuration ID_50;
}
object underground_line {
  name R5_35_00_1_ul_65;
// downstream 688.79 kva on CS
  phases CN;
  from R5_35_00_1_node_33;
  to R5_35_00_1_node_77;
  length 803.000;
  configuration ID_50;
}
object underground_line {
  name R5_35_00_1_ul_66;
// downstream 261.20 kva on BS
  phases BN;
  from R5_35_00_1_node_79;
  to R5_35_00_1_node_78;
  length 390.000;
  configuration ID_45;
}
object underground_line {
  name R5_35_00_1_ul_67;
// downstream 342.43 kva on BS
  phases BN;
  from R5_35_00_1_node_92;
  to R5_35_00_1_node_79;
  length 521.000;
  configuration ID_45;
}
object underground_line {
  name R5_35_00_1_ul_68;
// downstream 638.10 kva on CS
  phases CN;
  from R5_35_00_1_node_77;
  to R5_35_00_1_node_80;
  length 610.000;
  configuration ID_50;
}
object underground_line {
  name R5_35_00_1_ul_69;
// downstream 502.68 kva on CS
  phases CN;
  from R5_35_00_1_node_80;
  to R5_35_00_1_node_81;
  length 448.000;
  configuration ID_50;
}
object underground_line {
  name R5_35_00_1_ul_70;
// downstream 436.94 kva on CS
  phases CN;
  from R5_35_00_1_node_81;
  to R5_35_00_1_node_82;
  length 394.000;
  configuration ID_50;
}
object underground_line {
  name R5_35_00_1_ul_71;
// downstream 550.36 kva on ABC
  phases ABCN;
  from R5_35_00_1_node_31;
  to R5_35_00_1_node_83;
  length 1893.000;
  configuration ID_40;
}
object underground_line {
  name R5_35_00_1_ul_72;
// downstream 212.59 kva on CS
  phases CN;
  from R5_35_00_1_node_86;
  to R5_35_00_1_node_84;
  length 703.000;
  configuration ID_50;
}
object underground_line {
  name R5_35_00_1_ul_73;
// downstream 119.63 kva on CS
  phases CN;
  from R5_35_00_1_node_84;
  to R5_35_00_1_node_85;
  length 897.000;
  configuration ID_50;
}
object underground_line {
  name R5_35_00_1_ul_74;
// downstream 335.56 kva on CS
  phases CN;
  from R5_35_00_1_node_82;
  to R5_35_00_1_node_86;
  length 587.000;
  configuration ID_50;
}
object underground_line {
  name R5_35_00_1_ul_75;
// downstream 151.41 kva on CS
  phases CN;
  from R5_35_00_1_node_88;
  to R5_35_00_1_node_87;
  length 518.000;
  configuration ID_50;
}
object underground_line {
  name R5_35_00_1_ul_76;
// downstream 253.47 kva on CS
  phases CN;
  from R5_35_00_1_node_89;
  to R5_35_00_1_node_88;
  length 410.000;
  configuration ID_50;
}
object underground_line {
  name R5_35_00_1_ul_77;
// downstream 358.75 kva on CS
  phases CN;
  from R5_35_00_1_node_90;
  to R5_35_00_1_node_89;
  length 660;
  configuration ID_50;
}
object underground_line {
  name R5_35_00_1_ul_78;
// downstream 459.64 kva on CS
  phases CN;
  from R5_35_00_1_node_108;
  to R5_35_00_1_node_90;
  length 764.000;
  configuration ID_50;
}
object underground_line {
  name R5_35_00_1_ul_79;
// downstream 458.50 kva on BS
  phases BN;
  from R5_35_00_1_node_93;
  to R5_35_00_1_node_92;
  length 595.000;
  configuration ID_45;
}
object underground_line {
  name R5_35_00_1_ul_80;
// downstream 537.61 kva on BS
  phases BN;
  from R5_35_00_1_node_94;
  to R5_35_00_1_node_93;
  length 558.000;
  configuration ID_45;
}
object underground_line {
  name R5_35_00_1_ul_81;
// downstream 589.23 kva on BS
  phases BN;
  from R5_35_00_1_node_102;
  to R5_35_00_1_node_94;
  length 495.000;
  configuration ID_45;
}
object underground_line {
  name R5_35_00_1_ul_82;
// downstream 104.03 kva on BS
  phases BN;
  from R5_35_00_1_node_96;
  to R5_35_00_1_node_95;
  length 557.000;
  configuration ID_45;
}
object underground_line {
  name R5_35_00_1_ul_83;
// downstream 188.53 kva on BS
  phases BN;
  from R5_35_00_1_node_146;
  to R5_35_00_1_node_96;
  length 952.000;
  configuration ID_45;
}
object underground_line {
  name R5_35_00_1_ul_84;
// downstream 614.05 kva on AS
  phases AN;
  from R5_35_00_1_node_98;
  to R5_35_00_1_node_97;
  length 594.000;
  configuration ID_43;
}
object underground_line {
  name R5_35_00_1_ul_85;
// downstream 684.59 kva on AS
  phases AN;
  from R5_35_00_1_node_99;
  to R5_35_00_1_node_98;
  length 446.000;
  configuration ID_43;
}
object underground_line {
  name R5_35_00_1_ul_86;
// downstream 776.21 kva on AS
  phases AN;
  from R5_35_00_1_node_100;
  to R5_35_00_1_node_99;
  length 509.000;
  configuration ID_43;
}
object underground_line {
  name R5_35_00_1_ul_87;
// downstream 853.32 kva on AS
  phases AN;
  from R5_35_00_1_node_103;
  to R5_35_00_1_node_100;
  length 569.000;
  configuration ID_43;
}
object underground_line {
  name R5_35_00_1_ul_88;
// downstream 662.31 kva on BS
  phases BN;
  from R5_35_00_1_node_101;
  to R5_35_00_1_node_102;
  length 323.000;
  configuration ID_45;
}
object underground_line {
  name R5_35_00_1_ul_89;
// downstream 35.65 kva on AS
  phases AN;
  from R5_35_00_1_node_116;
  to R5_35_00_1_node_104;
  length 386.000;
  configuration ID_43;
}
object underground_line {
  name R5_35_00_1_ul_90;
// downstream 112.40 kva on AS
  phases AN;
  from R5_35_00_1_node_109;
  to R5_35_00_1_node_105;
  length 454.000;
  configuration ID_43;
}
object underground_line {
  name R5_35_00_1_ul_91;
// downstream 765.54 kva on CS
  phases CN;
  from R5_35_00_1_node_91;
  to R5_35_00_1_node_106;
  length 487.000;
  configuration ID_50;
}
object underground_line {
  name R5_35_00_1_ul_92;
// downstream 663.66 kva on CS
  phases CN;
  from R5_35_00_1_node_106;
  to R5_35_00_1_node_107;
  length 452.000;
  configuration ID_50;
}
object underground_line {
  name R5_35_00_1_ul_93;
// downstream 580.23 kva on CS
  phases CN;
  from R5_35_00_1_node_107;
  to R5_35_00_1_node_108;
  length 447.000;
  configuration ID_50;
}
object underground_line {
  name R5_35_00_1_ul_94;
// downstream 160.03 kva on AS
  phases AN;
  from R5_35_00_1_node_110;
  to R5_35_00_1_node_109;
  length 429.000;
  configuration ID_43;
}
object underground_line {
  name R5_35_00_1_ul_95;
// downstream 169.90 kva on BS
  phases BN;
  from R5_35_00_1_node_112;
  to R5_35_00_1_node_111;
  length 358.000;
  configuration ID_45;
}
object underground_line {
  name R5_35_00_1_ul_96;
// downstream 118.40 kva on AS
  phases AN;
  from R5_35_00_1_node_114;
  to R5_35_00_1_node_115;
  length 414.000;
  configuration ID_43;
}
object underground_line {
  name R5_35_00_1_ul_97;
// downstream 73.22 kva on AS
  phases AN;
  from R5_35_00_1_node_115;
  to R5_35_00_1_node_116;
  length 345.000;
  configuration ID_43;
}
object underground_line {
  name R5_35_00_1_ul_98;
// downstream 347.44 kva on CS
  phases CN;
  from R5_35_00_1_node_113;
  to R5_35_00_1_node_117;
  length 427.000;
  configuration ID_50;
}
object underground_line {
  name R5_35_00_1_ul_99;
// downstream 283.32 kva on CS
  phases CN;
  from R5_35_00_1_node_117;
  to R5_35_00_1_node_118;
  length 603.000;
  configuration ID_50;
}
object underground_line {
  name R5_35_00_1_ul_100;
// downstream 195.28 kva on CS
  phases CN;
  from R5_35_00_1_node_118;
  to R5_35_00_1_node_119;
  length 415.000;
  configuration ID_50;
}
object underground_line {
  name R5_35_00_1_ul_101;
// downstream 219.90 kva on BS
  phases BN;
  from R5_35_00_1_node_123;
  to R5_35_00_1_node_120;
  length 360;
  configuration ID_45;
}
object underground_line {
  name R5_35_00_1_ul_102;
// downstream 146.24 kva on BS
  phases BN;
  from R5_35_00_1_node_120;
  to R5_35_00_1_node_121;
  length 396.000;
  configuration ID_45;
}
object underground_line {
  name R5_35_00_1_ul_103;
// downstream 83.34 kva on BS
  phases BN;
  from R5_35_00_1_node_111;
  to R5_35_00_1_node_122;
  length 492.000;
  configuration ID_45;
}
object underground_line {
  name R5_35_00_1_ul_104;
// downstream 314.59 kva on BS
  phases BN;
  from R5_35_00_1_node_124;
  to R5_35_00_1_node_123;
  length 351.000;
  configuration ID_45;
}
object underground_line {
  name R5_35_00_1_ul_105;
// downstream 405.04 kva on BS
  phases BN;
  from R5_35_00_1_node_295;
  to R5_35_00_1_node_124;
  length 338.000;
  configuration ID_45;
}
object underground_line {
  name R5_35_00_1_ul_106;
// downstream 84.95 kva on CS
  phases CN;
  from R5_35_00_1_node_285;
  to R5_35_00_1_node_125;
  length 540.000;
  configuration ID_50;
}
object underground_line {
  name R5_35_00_1_ul_107;
// downstream 637.59 kva on AS
  phases AN;
  from R5_35_00_1_node_35;
  to R5_35_00_1_node_126;
  length 556.000;
  configuration ID_43;
}
object underground_line {
  name R5_35_00_1_ul_108;
// downstream 914.41 kva on AS
  phases AN;
  from R5_35_00_1_node_66;
  to R5_35_00_1_node_127;
  length 367.000;
  configuration ID_43;
}
object underground_line {
  name R5_35_00_1_ul_109;
// downstream 314.06 kva on CS
  phases CN;
  from R5_35_00_1_node_70;
  to R5_35_00_1_node_128;
  length 640.000;
  configuration ID_50;
}
object underground_line {
  name R5_35_00_1_ul_110;
// downstream 237.84 kva on CS
  phases CN;
  from R5_35_00_1_node_128;
  to R5_35_00_1_node_129;
  length 298.000;
  configuration ID_50;
}
object underground_line {
  name R5_35_00_1_ul_111;
// downstream 165.87 kva on CS
  phases CN;
  from R5_35_00_1_node_129;
  to R5_35_00_1_node_130;
  length 479.000;
  configuration ID_50;
}
object underground_line {
  name R5_35_00_1_ul_112;
// downstream 71.30 kva on CS
  phases CN;
  from R5_35_00_1_node_130;
  to R5_35_00_1_node_131;
  length 362.000;
  configuration ID_50;
}
object underground_line {
  name R5_35_00_1_ul_113;
// downstream 515.32 kva on BS
  phases BN;
  from R5_35_00_1_node_134;
  to R5_35_00_1_node_132;
  length 363.000;
  configuration ID_45;
}
object underground_line {
  name R5_35_00_1_ul_114;
// downstream 508.19 kva on AS
  phases AN;
  from R5_35_00_1_node_255;
  to R5_35_00_1_node_135;
  length 450.000;
  configuration ID_43;
}
object underground_line {
  name R5_35_00_1_ul_115;
// downstream 436.44 kva on AS
  phases AN;
  from R5_35_00_1_node_135;
...